variable  T0    equal 100  #K
variable  Pa    equal 0.1  # MPa
variable  P0    equal "v_Pa/0.101325"  # MPa to atm

variable  dt    equal 1.0 #timestep fs

variable  Tdamp equal "v_dt*100"  #1000
variable  Pdamp equal "v_dt*100"  #2500

variable    p equal 2000     # correlation length
variable    s equal 10      # sample interval
variable    d equal $p*$s   # dump interval
variable    d equal 2000*$s
variable    d equal 2000*10

variable  Lr    equal 1e6  # npt/nvt time
variable  Lt    equal 1.5e6  # nve time

# convert from LAMMPS real units to SI
variable    kB equal 1.3806504e-23    # [J/K] Boltzmann
variable    A2m equal 1.0e-10
variable    fs2s equal 1.0e-15
variable    kcalpermol2J equal 4186.0/6.02214e23

# ----------------- Init Section -----------------
units        real
dimension	 3
boundary	 p p p
atom_style   full
pair_style   lj/cut/tip4p/long 1 2 1 1 0.1577 8.5
kspace_style pppm/tip4p 1.0e-4
bond_style   harmonic
angle_style  harmonic
pair_modify mix arithmetic  # Lorenz â€“ Berthelot mixing rules

# ----------------- Atom Definition Section -----------------
read_data "system.data"
Reading data file ...
  orthogonal box = (-1.0304299 -0.97147404 -0.9714736) to (10.85707 10.916026 10.916026)
  reading atoms ...
  146 atoms
  scanning bonds ...
  scanning angles ...
  reading bonds ...
  92 bonds
  reading angles ...
  46 angles
Finding 1-2 1-3 1-4 neighbors ...
     2 = max # of 1-2 neighbors
     1 = max # of 1-3 neighbors
     1 = max # of 1-4 neighbors
     2 = max # of special neighbors
# ----------------- Constraints Section -----------------

replicate 2 2 2
Replicating atoms ...
  orthogonal box = (-1.0304299 -0.97147404 -0.9714736) to (22.74457 22.803526 22.803526)
  1168 atoms
  736 bonds
  368 angles
Finding 1-2 1-3 1-4 neighbors ...
     2 = max # of 1-2 neighbors
     1 = max # of 1-3 neighbors
     1 = max # of 1-4 neighbors
     2 = max # of special neighbors
  replicate CPU = 0.003 seconds

# ----------------- Settings Section -----------------
pair_coeff   1 1 	0.21084  	3.1668      # O-water
pair_coeff   1 2 	0.00000  	0.0000      # O-H water
pair_coeff   1 3 	0.24893  	3.4484      # O-CT
pair_coeff   2 2 	0.00000     0.000       # H-H
pair_coeff   2 3 	0.00000     1.865       # H-CT
pair_coeff   3 3  	0.29391		3.730	    # CT-CT methane

bond_coeff   1         0.0    0.9572
angle_coeff  1         0.0    104.52

group water		 	type   1  2
1104 atoms in group water
group methane 		type   3
64 atoms in group methane

fix shaketip4p 	 water   shake 0.0001 100 0 b 1 a 1
       0 = # of size 2 clusters
       0 = # of size 3 clusters
       0 = # of size 4 clusters
     368 = # of frozen angles
  find clusters CPU = 0.000 seconds

# ----------------- Run Section -----------------
neighbor 2.0 bin
neigh_modify every 1 delay 0 check yes

timestep 1

velocity all create 100 $k4928459 rot yes mom yes dist gaussian
velocity all create 100 14928459 rot yes mom yes dist gaussian

# ----------------- NPT Section -----------------

reset_timestep 0
thermo 1000
thermo_style  custom step density temp press pxx pyy pzz pe ke etotal
dump 1 all custom 1000 traj_npt_relax_100_$k.lammpstrj id mol element type x y z
dump 1 all custom 1000 traj_npt_relax_100_1.lammpstrj id mol element type x y z
dump_modify 1 element O H C
fix   fxnpt all npt temp 100 500 100 iso 50 50 100

PPPM initialization ...
  extracting TIP4P info from pair style
  G vector (1/distance) = 0.33163362
  grid = 18 18 18
  stencil order = 5
  estimated absolute RMS force accuracy = 0.022103296
  estimated relative force accuracy = 6.656342e-05
  3d grid and FFT values/proc = 2816 648
Generated 0 of 3 mixed pair_coeff terms from arithmetic mixing rule
  update every 1 steps, delay 0 steps, check yes
Step        Density          Temp          Press           Pxx            Pyy            Pzz           PotEng         KinEng         TotEng
0   0.94604554     100            711.57818     -2691.0929      1191.5752      3634.2522     -6452.7399      238.16672     -6214.5732
Averages over the last 251 of 501 rows, steps 250000 to 500000:
Density Temp Press Pxx Pyy Pzz PotEng KinEng TotEng
0.779618 399.586 38.744 -117.754 62.6507 171.335 -4705.49 951.682 -3753.81
Loop time of 1442.71 on 16 procs for 500000 steps with 1168 atoms

unfix fxnpt
undump 1
write_data $k_npt_relax.data
write_data 1_npt_relax.data
System init for write_data ...
PPPM initialization ...
  extracting TIP4P info from pair style
  G vector (1/distance) = 0.32612935
  grid = 24 24 24
  stencil order = 5
  estimated absolute RMS force accuracy = 0.017095945
  estimated relative force accuracy = 5.148393e-05
  3d grid and FFT values/proc = 4693 1152
Generated 0 of 3 mixed pair_coeff terms from arithmetic mixing rule
